This is an example.
new line.
another new line.